<?xml version="1.0" encoding="UTF-8"?>

<!-- generated on 2024-05-05 16:16:35.386104 by randomTrips.py UNKNOWN
<configuration>
    <net-file value="net.net.xml"/>
    <output-trip-file value="trips.xml"/>
    <route-file value="input_routes.rou.xml"/>
    <period value="1.09"/>
</configuration>
-->

<!-- generated on 2024-05-05 16:16:35 by Eclipse SUMO duarouter Version 1.19.0
<configuration xmlns:xsi="http://www.w3.org/2001/XMLSchema-instance" xsi:noNamespaceSchemaLocation="http://sumo.dlr.de/xsd/duarouterConfiguration.xsd">

    <input>
        <net-file value="net.net.xml"/>
        <route-files value="trips.xml"/>
    </input>

    <output>
        <output-file value="input_routes.rou.xml"/>
        <alternatives-output value="NUL"/>
    </output>

    <time>
        <begin value="0"/>
        <end value="3600.0"/>
    </time>

    <report>
        <no-warnings value="true"/>
        <ignore-errors value="true"/>
        <no-step-log value="true"/>
    </report>

</configuration>
-->

<routes xmlns:xsi="http://www.w3.org/2001/XMLSchema-instance" xsi:noNamespaceSchemaLocation="http://sumo.dlr.de/xsd/routes_file.xsd">
    <vehicle id="0" depart="0.00">
        <route edges="fromLeft 2o"/>
    </vehicle>
    <vehicle id="1" depart="1.09">
        <route edges="3fi fromBottom 3o"/>
    </vehicle>
    <vehicle id="2" depart="2.18">
        <route edges="fromLeft 2o 2fi fromRight"/>
    </vehicle>
    <vehicle id="3" depart="3.27">
        <route edges="fromTop 2o"/>
    </vehicle>
    <vehicle id="4" depart="4.36">
        <route edges="4fi fromTop 2o"/>
    </vehicle>
    <vehicle id="5" depart="5.45">
        <route edges="2fi fromRight toLeft 1fi fromLeft"/>
    </vehicle>
    <vehicle id="6" depart="6.54">
        <route edges="1fi fromLeft 3o"/>
    </vehicle>
    <vehicle id="7" depart="7.63">
        <route edges="fromLeft"/>
    </vehicle>
    <vehicle id="8" depart="8.72">
        <route edges="2fi fromRight toLeft 1fi fromLeft"/>
    </vehicle>
    <vehicle id="9" depart="9.81">
        <route edges="fromRight 2o"/>
    </vehicle>
    <vehicle id="10" depart="10.90">
        <route edges="fromRight"/>
    </vehicle>
    <vehicle id="11" depart="11.99">
        <route edges="3fi fromBottom 3o"/>
    </vehicle>
    <vehicle id="12" depart="13.08">
        <route edges="fromTop 4o"/>
    </vehicle>
    <vehicle id="13" depart="14.17">
        <route edges="1fi fromLeft 2o"/>
    </vehicle>
    <vehicle id="14" depart="15.26">
        <route edges="fromRight toLeft 1fi fromLeft"/>
    </vehicle>
    <vehicle id="15" depart="16.35">
        <route edges="fromRight"/>
    </vehicle>
    <vehicle id="16" depart="17.44">
        <route edges="fromBottom toLeft"/>
    </vehicle>
    <vehicle id="17" depart="18.53">
        <route edges="4fi fromTop toLeft 1fi fromLeft"/>
    </vehicle>
    <vehicle id="18" depart="19.62">
        <route edges="fromRight toLeft 1fi fromLeft"/>
    </vehicle>
    <vehicle id="19" depart="20.71">
        <route edges="fromRight toLeft 1fi fromLeft"/>
    </vehicle>
    <vehicle id="20" depart="21.80">
        <route edges="fromLeft 2o"/>
    </vehicle>
    <vehicle id="21" depart="22.89">
        <route edges="2fi fromRight 4o"/>
    </vehicle>
    <vehicle id="22" depart="23.98">
        <route edges="1fi fromLeft 3o"/>
    </vehicle>
    <vehicle id="23" depart="25.07">
        <route edges="1fi fromLeft 4o"/>
    </vehicle>
    <vehicle id="24" depart="26.16">
        <route edges="fromLeft 4o"/>
    </vehicle>
    <vehicle id="25" depart="27.25">
        <route edges="3fi fromBottom 3o"/>
    </vehicle>
    <vehicle id="26" depart="28.34">
        <route edges="3fi fromBottom toLeft"/>
    </vehicle>
    <vehicle id="27" depart="29.43">
        <route edges="fromLeft"/>
    </vehicle>
    <vehicle id="28" depart="30.52">
        <route edges="2fi fromRight"/>
    </vehicle>
    <vehicle id="29" depart="31.61">
        <route edges="2fi fromRight 3o 3fi fromBottom"/>
    </vehicle>
    <vehicle id="30" depart="32.70">
        <route edges="fromTop 2o 2fi fromRight"/>
    </vehicle>
    <vehicle id="31" depart="33.79">
        <route edges="fromBottom 2o 2fi fromRight"/>
    </vehicle>
    <vehicle id="32" depart="34.88">
        <route edges="fromRight 4o 4fi fromTop"/>
    </vehicle>
    <vehicle id="33" depart="35.97">
        <route edges="2fi fromRight 2o"/>
    </vehicle>
    <vehicle id="34" depart="37.06">
        <route edges="3fi fromBottom 4o"/>
    </vehicle>
    <vehicle id="35" depart="38.15">
        <route edges="2fi fromRight toLeft"/>
    </vehicle>
    <vehicle id="36" depart="39.24">
        <route edges="fromTop 4o"/>
    </vehicle>
    <vehicle id="37" depart="40.33">
        <route edges="fromLeft 3o 3fi fromBottom"/>
    </vehicle>
    <vehicle id="38" depart="41.42">
        <route edges="fromTop 3o 3fi fromBottom"/>
    </vehicle>
    <vehicle id="39" depart="42.51">
        <route edges="3fi fromBottom 3o"/>
    </vehicle>
    <vehicle id="40" depart="43.60">
        <route edges="fromBottom 4o"/>
    </vehicle>
    <vehicle id="41" depart="44.69">
        <route edges="fromBottom toLeft"/>
    </vehicle>
    <vehicle id="42" depart="45.78">
        <route edges="4fi fromTop 3o"/>
    </vehicle>
    <vehicle id="43" depart="46.87">
        <route edges="fromTop toLeft 1fi fromLeft"/>
    </vehicle>
    <vehicle id="44" depart="47.96">
        <route edges="1fi fromLeft 2o"/>
    </vehicle>
    <vehicle id="45" depart="49.05">
        <route edges="1fi fromLeft 2o 2fi fromRight"/>
    </vehicle>
    <vehicle id="46" depart="50.14">
        <route edges="fromRight 3o 3fi fromBottom"/>
    </vehicle>
    <vehicle id="47" depart="51.23">
        <route edges="1fi fromLeft 3o 3fi fromBottom"/>
    </vehicle>
    <vehicle id="48" depart="52.32">
        <route edges="fromTop toLeft 1fi fromLeft"/>
    </vehicle>
    <vehicle id="49" depart="53.41">
        <route edges="fromTop"/>
    </vehicle>
    <vehicle id="50" depart="54.50">
        <route edges="1fi fromLeft 2o 2fi fromRight"/>
    </vehicle>
    <vehicle id="51" depart="55.59">
        <route edges="fromLeft"/>
    </vehicle>
    <vehicle id="52" depart="56.68">
        <route edges="3fi fromBottom 2o 2fi fromRight"/>
    </vehicle>
    <vehicle id="53" depart="57.77">
        <route edges="1fi fromLeft 3o 3fi fromBottom"/>
    </vehicle>
    <vehicle id="54" depart="58.86">
        <route edges="4fi fromTop toLeft"/>
    </vehicle>
    <vehicle id="55" depart="59.95">
        <route edges="fromTop 4o"/>
    </vehicle>
    <vehicle id="56" depart="61.04">
        <route edges="fromBottom 3o"/>
    </vehicle>
    <vehicle id="57" depart="62.13">
        <route edges="fromTop"/>
    </vehicle>
    <vehicle id="58" depart="63.22">
        <route edges="3fi fromBottom 2o 2fi fromRight"/>
    </vehicle>
    <vehicle id="59" depart="64.31">
        <route edges="fromBottom 3o"/>
    </vehicle>
    <vehicle id="60" depart="65.40">
        <route edges="fromRight toLeft 1fi fromLeft"/>
    </vehicle>
    <vehicle id="61" depart="66.49">
        <route edges="fromRight toLeft 1fi fromLeft"/>
    </vehicle>
    <vehicle id="62" depart="67.58">
        <route edges="1fi fromLeft 4o"/>
    </vehicle>
    <vehicle id="63" depart="68.67">
        <route edges="1fi fromLeft toLeft"/>
    </vehicle>
    <vehicle id="64" depart="69.76">
        <route edges="fromTop"/>
    </vehicle>
    <vehicle id="65" depart="70.85">
        <route edges="3fi fromBottom 2o"/>
    </vehicle>
    <vehicle id="66" depart="71.94">
        <route edges="fromTop toLeft"/>
    </vehicle>
    <vehicle id="67" depart="73.03">
        <route edges="1fi fromLeft 3o 3fi fromBottom"/>
    </vehicle>
    <vehicle id="68" depart="74.12">
        <route edges="1fi fromLeft 4o 4fi fromTop"/>
    </vehicle>
    <vehicle id="69" depart="75.21">
        <route edges="fromRight 3o"/>
    </vehicle>
    <vehicle id="70" depart="76.30">
        <route edges="4fi fromTop toLeft 1fi fromLeft"/>
    </vehicle>
    <vehicle id="71" depart="77.39">
        <route edges="3fi fromBottom 4o 4fi fromTop"/>
    </vehicle>
    <vehicle id="72" depart="78.48">
        <route edges="4fi fromTop 3o"/>
    </vehicle>
    <vehicle id="73" depart="79.57">
        <route edges="fromBottom 2o 2fi fromRight"/>
    </vehicle>
    <vehicle id="74" depart="80.66">
        <route edges="2fi fromRight 4o"/>
    </vehicle>
    <vehicle id="75" depart="81.75">
        <route edges="fromTop 2o 2fi fromRight"/>
    </vehicle>
    <vehicle id="76" depart="82.84">
        <route edges="4fi fromTop toLeft 1fi fromLeft"/>
    </vehicle>
    <vehicle id="77" depart="83.93">
        <route edges="1fi fromLeft 3o"/>
    </vehicle>
    <vehicle id="78" depart="85.02">
        <route edges="3fi fromBottom toLeft 1fi fromLeft"/>
    </vehicle>
    <vehicle id="79" depart="86.11">
        <route edges="2fi fromRight 3o"/>
    </vehicle>
    <vehicle id="80" depart="87.20">
        <route edges="1fi fromLeft 2o 2fi fromRight"/>
    </vehicle>
    <vehicle id="81" depart="88.29">
        <route edges="2fi fromRight toLeft"/>
    </vehicle>
    <vehicle id="82" depart="89.38">
        <route edges="fromRight 2o"/>
    </vehicle>
    <vehicle id="83" depart="90.47">
        <route edges="2fi fromRight"/>
    </vehicle>
    <vehicle id="84" depart="91.56">
        <route edges="2fi fromRight 3o"/>
    </vehicle>
    <vehicle id="85" depart="92.65">
        <route edges="fromTop toLeft 1fi fromLeft"/>
    </vehicle>
    <vehicle id="86" depart="93.74">
        <route edges="4fi fromTop"/>
    </vehicle>
    <vehicle id="87" depart="94.83">
        <route edges="fromRight 3o"/>
    </vehicle>
    <vehicle id="88" depart="95.92">
        <route edges="1fi fromLeft 3o 3fi fromBottom"/>
    </vehicle>
    <vehicle id="89" depart="97.01">
        <route edges="4fi fromTop 3o 3fi fromBottom"/>
    </vehicle>
    <vehicle id="90" depart="98.10">
        <route edges="fromLeft 2o 2fi fromRight"/>
    </vehicle>
    <vehicle id="91" depart="99.19">
        <route edges="fromTop 2o"/>
    </vehicle>
    <vehicle id="92" depart="100.28">
        <route edges="4fi fromTop 4o"/>
    </vehicle>
    <vehicle id="93" depart="101.37">
        <route edges="fromRight 3o"/>
    </vehicle>
    <vehicle id="94" depart="102.46">
        <route edges="2fi fromRight 3o 3fi fromBottom"/>
    </vehicle>
    <vehicle id="95" depart="103.55">
        <route edges="4fi fromTop 4o"/>
    </vehicle>
    <vehicle id="96" depart="104.64">
        <route edges="2fi fromRight toLeft"/>
    </vehicle>
    <vehicle id="97" depart="105.73">
        <route edges="4fi fromTop"/>
    </vehicle>
    <vehicle id="98" depart="106.82">
        <route edges="fromBottom 2o"/>
    </vehicle>
    <vehicle id="99" depart="107.91">
        <route edges="fromTop"/>
    </vehicle>
    <vehicle id="100" depart="109.00">
        <route edges="fromTop toLeft"/>
    </vehicle>
    <vehicle id="101" depart="110.09">
        <route edges="fromRight 3o"/>
    </vehicle>
    <vehicle id="102" depart="111.18">
        <route edges="4fi fromTop 3o"/>
    </vehicle>
    <vehicle id="103" depart="112.27">
        <route edges="4fi fromTop 2o"/>
    </vehicle>
    <vehicle id="104" depart="113.36">
        <route edges="4fi fromTop toLeft"/>
    </vehicle>
    <vehicle id="105" depart="114.45">
        <route edges="3fi fromBottom 4o 4fi fromTop"/>
    </vehicle>
    <vehicle id="106" depart="115.54">
        <route edges="4fi fromTop 3o 3fi fromBottom"/>
    </vehicle>
    <vehicle id="107" depart="116.63">
        <route edges="fromTop toLeft"/>
    </vehicle>
    <vehicle id="108" depart="117.72">
        <route edges="fromBottom 2o 2fi fromRight"/>
    </vehicle>
    <vehicle id="109" depart="118.81">
        <route edges="2fi fromRight 4o"/>
    </vehicle>
    <vehicle id="110" depart="119.90">
        <route edges="fromTop toLeft 1fi fromLeft"/>
    </vehicle>
    <vehicle id="111" depart="120.99">
        <route edges="fromBottom 2o 2fi fromRight"/>
    </vehicle>
    <vehicle id="112" depart="122.08">
        <route edges="1fi fromLeft"/>
    </vehicle>
    <vehicle id="113" depart="123.17">
        <route edges="fromBottom 4o 4fi fromTop"/>
    </vehicle>
    <vehicle id="114" depart="124.26">
        <route edges="2fi fromRight toLeft"/>
    </vehicle>
    <vehicle id="115" depart="125.35">
        <route edges="1fi fromLeft 3o"/>
    </vehicle>
    <vehicle id="116" depart="126.44">
        <route edges="fromBottom 2o 2fi fromRight"/>
    </vehicle>
    <vehicle id="117" depart="127.53">
        <route edges="2fi fromRight 2o"/>
    </vehicle>
    <vehicle id="118" depart="128.62">
        <route edges="fromTop 3o"/>
    </vehicle>
    <vehicle id="119" depart="129.71">
        <route edges="fromBottom toLeft 1fi fromLeft"/>
    </vehicle>
    <vehicle id="120" depart="130.80">
        <route edges="4fi fromTop toLeft 1fi fromLeft"/>
    </vehicle>
    <vehicle id="121" depart="131.89">
        <route edges="fromBottom toLeft"/>
    </vehicle>
    <vehicle id="122" depart="132.98">
        <route edges="2fi fromRight"/>
    </vehicle>
    <vehicle id="123" depart="134.07">
        <route edges="2fi fromRight 3o 3fi fromBottom"/>
    </vehicle>
    <vehicle id="124" depart="135.16">
        <route edges="fromLeft 4o"/>
    </vehicle>
    <vehicle id="125" depart="136.25">
        <route edges="3fi fromBottom 4o 4fi fromTop"/>
    </vehicle>
    <vehicle id="126" depart="137.34">
        <route edges="1fi fromLeft 3o 3fi fromBottom"/>
    </vehicle>
    <vehicle id="127" depart="138.43">
        <route edges="fromTop toLeft"/>
    </vehicle>
    <vehicle id="128" depart="139.52">
        <route edges="1fi fromLeft 3o"/>
    </vehicle>
    <vehicle id="129" depart="140.61">
        <route edges="3fi fromBottom toLeft"/>
    </vehicle>
    <vehicle id="130" depart="141.70">
        <route edges="fromTop toLeft"/>
    </vehicle>
    <vehicle id="131" depart="142.79">
        <route edges="3fi fromBottom 3o"/>
    </vehicle>
    <vehicle id="132" depart="143.88">
        <route edges="fromRight"/>
    </vehicle>
    <vehicle id="133" depart="144.97">
        <route edges="fromBottom toLeft"/>
    </vehicle>
    <vehicle id="134" depart="146.06">
        <route edges="fromLeft 2o"/>
    </vehicle>
    <vehicle id="135" depart="147.15">
        <route edges="fromRight 4o"/>
    </vehicle>
    <vehicle id="136" depart="148.24">
        <route edges="fromLeft toLeft"/>
    </vehicle>
    <vehicle id="137" depart="149.33">
        <route edges="2fi fromRight 2o"/>
    </vehicle>
    <vehicle id="138" depart="150.42">
        <route edges="1fi fromLeft"/>
    </vehicle>
    <vehicle id="139" depart="151.51">
        <route edges="3fi fromBottom toLeft 1fi fromLeft"/>
    </vehicle>
    <vehicle id="140" depart="152.60">
        <route edges="fromLeft 3o"/>
    </vehicle>
    <vehicle id="141" depart="153.69">
        <route edges="fromLeft 4o"/>
    </vehicle>
    <vehicle id="142" depart="154.78">
        <route edges="4fi fromTop toLeft"/>
    </vehicle>
    <vehicle id="143" depart="155.87">
        <route edges="fromRight 2o"/>
    </vehicle>
    <vehicle id="144" depart="156.96">
        <route edges="4fi fromTop 4o"/>
    </vehicle>
    <vehicle id="145" depart="158.05">
        <route edges="1fi fromLeft 4o 4fi fromTop"/>
    </vehicle>
    <vehicle id="146" depart="159.14">
        <route edges="fromLeft 4o"/>
    </vehicle>
    <vehicle id="147" depart="160.23">
        <route edges="fromLeft"/>
    </vehicle>
    <vehicle id="148" depart="161.32">
        <route edges="4fi fromTop 2o"/>
    </vehicle>
    <vehicle id="149" depart="162.41">
        <route edges="1fi fromLeft toLeft"/>
    </vehicle>
    <vehicle id="150" depart="163.50">
        <route edges="fromTop toLeft 1fi fromLeft"/>
    </vehicle>
    <vehicle id="151" depart="164.59">
        <route edges="fromRight toLeft 1fi fromLeft"/>
    </vehicle>
    <vehicle id="152" depart="165.68">
        <route edges="2fi fromRight 3o"/>
    </vehicle>
    <vehicle id="153" depart="166.77">
        <route edges="3fi fromBottom toLeft"/>
    </vehicle>
    <vehicle id="154" depart="167.86">
        <route edges="fromRight 4o 4fi fromTop"/>
    </vehicle>
    <vehicle id="155" depart="168.95">
        <route edges="fromTop 3o"/>
    </vehicle>
    <vehicle id="156" depart="170.04">
        <route edges="2fi fromRight 2o"/>
    </vehicle>
    <vehicle id="157" depart="171.13">
        <route edges="fromRight toLeft"/>
    </vehicle>
    <vehicle id="158" depart="172.22">
        <route edges="4fi fromTop toLeft 1fi fromLeft"/>
    </vehicle>
    <vehicle id="159" depart="173.31">
        <route edges="2fi fromRight toLeft"/>
    </vehicle>
    <vehicle id="160" depart="174.40">
        <route edges="fromRight toLeft"/>
    </vehicle>
    <vehicle id="161" depart="175.49">
        <route edges="fromRight toLeft"/>
    </vehicle>
    <vehicle id="162" depart="176.58">
        <route edges="1fi fromLeft 2o 2fi fromRight"/>
    </vehicle>
    <vehicle id="163" depart="177.67">
        <route edges="3fi fromBottom toLeft"/>
    </vehicle>
    <vehicle id="164" depart="178.76">
        <route edges="fromRight 4o 4fi fromTop"/>
    </vehicle>
    <vehicle id="165" depart="179.85">
        <route edges="fromRight 4o"/>
    </vehicle>
    <vehicle id="166" depart="180.94">
        <route edges="fromRight 2o"/>
    </vehicle>
    <vehicle id="167" depart="182.03">
        <route edges="fromRight 4o 4fi fromTop"/>
    </vehicle>
    <vehicle id="168" depart="183.12">
        <route edges="2fi fromRight 4o 4fi fromTop"/>
    </vehicle>
    <vehicle id="169" depart="184.21">
        <route edges="4fi fromTop 4o"/>
    </vehicle>
    <vehicle id="170" depart="185.30">
        <route edges="fromRight 3o"/>
    </vehicle>
    <vehicle id="171" depart="186.39">
        <route edges="1fi fromLeft 3o"/>
    </vehicle>
    <vehicle id="172" depart="187.48">
        <route edges="3fi fromBottom 4o 4fi fromTop"/>
    </vehicle>
    <vehicle id="173" depart="188.57">
        <route edges="fromTop 4o"/>
    </vehicle>
    <vehicle id="174" depart="189.66">
        <route edges="fromLeft 3o 3fi fromBottom"/>
    </vehicle>
    <vehicle id="175" depart="190.75">
        <route edges="fromTop toLeft 1fi fromLeft"/>
    </vehicle>
    <vehicle id="176" depart="191.84">
        <route edges="fromTop 2o"/>
    </vehicle>
    <vehicle id="177" depart="192.93">
        <route edges="fromTop 3o"/>
    </vehicle>
    <vehicle id="178" depart="194.02">
        <route edges="fromTop 4o"/>
    </vehicle>
    <vehicle id="179" depart="195.11">
        <route edges="1fi fromLeft 3o 3fi fromBottom"/>
    </vehicle>
    <vehicle id="180" depart="196.20">
        <route edges="fromLeft 4o"/>
    </vehicle>
    <vehicle id="181" depart="197.29">
        <route edges="fromBottom toLeft 1fi fromLeft"/>
    </vehicle>
    <vehicle id="182" depart="198.38">
        <route edges="4fi fromTop toLeft 1fi fromLeft"/>
    </vehicle>
    <vehicle id="183" depart="199.47">
        <route edges="3fi fromBottom 2o 2fi fromRight"/>
    </vehicle>
    <vehicle id="184" depart="200.56">
        <route edges="1fi fromLeft toLeft"/>
    </vehicle>
    <vehicle id="185" depart="201.65">
        <route edges="fromBottom 2o 2fi fromRight"/>
    </vehicle>
    <vehicle id="186" depart="202.74">
        <route edges="fromLeft 2o 2fi fromRight"/>
    </vehicle>
    <vehicle id="187" depart="203.83">
        <route edges="3fi fromBottom 2o"/>
    </vehicle>
    <vehicle id="188" depart="204.92">
        <route edges="fromLeft 4o"/>
    </vehicle>
    <vehicle id="189" depart="206.01">
        <route edges="3fi fromBottom 4o 4fi fromTop"/>
    </vehicle>
    <vehicle id="190" depart="207.10">
        <route edges="fromLeft 4o"/>
    </vehicle>
    <vehicle id="191" depart="208.19">
        <route edges="3fi fromBottom"/>
    </vehicle>
    <vehicle id="192" depart="209.28">
        <route edges="4fi fromTop 4o"/>
    </vehicle>
    <vehicle id="193" depart="210.37">
        <route edges="2fi fromRight 3o 3fi fromBottom"/>
    </vehicle>
    <vehicle id="194" depart="211.46">
        <route edges="fromTop 2o 2fi fromRight"/>
    </vehicle>
    <vehicle id="195" depart="212.55">
        <route edges="fromTop toLeft 1fi fromLeft"/>
    </vehicle>
    <vehicle id="196" depart="213.64">
        <route edges="3fi fromBottom toLeft 1fi fromLeft"/>
    </vehicle>
    <vehicle id="197" depart="214.73">
        <route edges="1fi fromLeft 4o"/>
    </vehicle>
    <vehicle id="198" depart="215.82">
        <route edges="4fi fromTop toLeft 1fi fromLeft"/>
    </vehicle>
    <vehicle id="199" depart="216.91">
        <route edges="fromLeft 3o 3fi fromBottom"/>
    </vehicle>
    <vehicle id="200" depart="218.00">
        <route edges="4fi fromTop 3o"/>
    </vehicle>
    <vehicle id="201" depart="219.09">
        <route edges="4fi fromTop toLeft"/>
    </vehicle>
    <vehicle id="202" depart="220.18">
        <route edges="fromRight 3o"/>
    </vehicle>
    <vehicle id="203" depart="221.27">
        <route edges="1fi fromLeft"/>
    </vehicle>
    <vehicle id="204" depart="222.36">
        <route edges="fromLeft 4o"/>
    </vehicle>
    <vehicle id="205" depart="223.45">
        <route edges="fromRight 4o 4fi fromTop"/>
    </vehicle>
    <vehicle id="206" depart="224.54">
        <route edges="fromLeft 3o"/>
    </vehicle>
    <vehicle id="207" depart="225.63">
        <route edges="2fi fromRight 2o"/>
    </vehicle>
    <vehicle id="208" depart="226.72">
        <route edges="2fi fromRight 3o 3fi fromBottom"/>
    </vehicle>
    <vehicle id="209" depart="227.81">
        <route edges="fromRight 2o"/>
    </vehicle>
    <vehicle id="210" depart="228.90">
        <route edges="4fi fromTop 2o 2fi fromRight"/>
    </vehicle>
    <vehicle id="211" depart="229.99">
        <route edges="2fi fromRight"/>
    </vehicle>
    <vehicle id="212" depart="231.08">
        <route edges="4fi fromTop 3o"/>
    </vehicle>
    <vehicle id="213" depart="232.17">
        <route edges="fromLeft 2o"/>
    </vehicle>
    <vehicle id="214" depart="233.26">
        <route edges="fromRight 4o 4fi fromTop"/>
    </vehicle>
    <vehicle id="215" depart="234.35">
        <route edges="1fi fromLeft 3o 3fi fromBottom"/>
    </vehicle>
    <vehicle id="216" depart="235.44">
        <route edges="2fi fromRight toLeft"/>
    </vehicle>
    <vehicle id="217" depart="236.53">
        <route edges="fromBottom 2o"/>
    </vehicle>
    <vehicle id="218" depart="237.62">
        <route edges="2fi fromRight 4o 4fi fromTop"/>
    </vehicle>
    <vehicle id="219" depart="238.71">
        <route edges="4fi fromTop"/>
    </vehicle>
    <vehicle id="220" depart="239.80">
        <route edges="fromLeft toLeft"/>
    </vehicle>
    <vehicle id="221" depart="240.89">
        <route edges="fromBottom toLeft"/>
    </vehicle>
    <vehicle id="222" depart="241.98">
        <route edges="fromTop toLeft 1fi fromLeft"/>
    </vehicle>
    <vehicle id="223" depart="243.07">
        <route edges="fromLeft"/>
    </vehicle>
    <vehicle id="224" depart="244.16">
        <route edges="fromRight toLeft 1fi fromLeft"/>
    </vehicle>
    <vehicle id="225" depart="245.25">
        <route edges="fromTop 2o 2fi fromRight"/>
    </vehicle>
    <vehicle id="226" depart="246.34">
        <route edges="4fi fromTop 4o"/>
    </vehicle>
    <vehicle id="227" depart="247.43">
        <route edges="2fi fromRight"/>
    </vehicle>
    <vehicle id="228" depart="248.52">
        <route edges="fromRight toLeft 1fi fromLeft"/>
    </vehicle>
    <vehicle id="229" depart="249.61">
        <route edges="fromLeft 4o"/>
    </vehicle>
    <vehicle id="230" depart="250.70">
        <route edges="1fi fromLeft 4o"/>
    </vehicle>
    <vehicle id="231" depart="251.79">
        <route edges="3fi fromBottom 4o"/>
    </vehicle>
    <vehicle id="232" depart="252.88">
        <route edges="fromBottom 3o"/>
    </vehicle>
    <vehicle id="233" depart="253.97">
        <route edges="2fi fromRight"/>
    </vehicle>
    <vehicle id="234" depart="255.06">
        <route edges="fromLeft 2o"/>
    </vehicle>
    <vehicle id="235" depart="256.15">
        <route edges="4fi fromTop toLeft 1fi fromLeft"/>
    </vehicle>
    <vehicle id="236" depart="257.24">
        <route edges="4fi fromTop 3o"/>
    </vehicle>
    <vehicle id="237" depart="258.33">
        <route edges="4fi fromTop toLeft"/>
    </vehicle>
    <vehicle id="238" depart="259.42">
        <route edges="fromBottom 2o 2fi fromRight"/>
    </vehicle>
    <vehicle id="239" depart="260.51">
        <route edges="fromRight 4o 4fi fromTop"/>
    </vehicle>
    <vehicle id="240" depart="261.60">
        <route edges="4fi fromTop 2o"/>
    </vehicle>
    <vehicle id="241" depart="262.69">
        <route edges="3fi fromBottom 4o 4fi fromTop"/>
    </vehicle>
    <vehicle id="242" depart="263.78">
        <route edges="fromRight toLeft"/>
    </vehicle>
    <vehicle id="243" depart="264.87">
        <route edges="4fi fromTop 2o 2fi fromRight"/>
    </vehicle>
    <vehicle id="244" depart="265.96">
        <route edges="fromBottom toLeft 1fi fromLeft"/>
    </vehicle>
    <vehicle id="245" depart="267.05">
        <route edges="2fi fromRight 3o"/>
    </vehicle>
    <vehicle id="246" depart="268.14">
        <route edges="4fi fromTop 2o"/>
    </vehicle>
    <vehicle id="247" depart="269.23">
        <route edges="3fi fromBottom 2o 2fi fromRight"/>
    </vehicle>
    <vehicle id="248" depart="270.32">
        <route edges="4fi fromTop 3o"/>
    </vehicle>
    <vehicle id="249" depart="271.41">
        <route edges="4fi fromTop 3o"/>
    </vehicle>
    <vehicle id="250" depart="272.50">
        <route edges="fromBottom 2o"/>
    </vehicle>
    <vehicle id="251" depart="273.59">
        <route edges="4fi fromTop toLeft 1fi fromLeft"/>
    </vehicle>
    <vehicle id="252" depart="274.68">
        <route edges="1fi fromLeft 2o 2fi fromRight"/>
    </vehicle>
    <vehicle id="253" depart="275.77">
        <route edges="2fi fromRight 3o 3fi fromBottom"/>
    </vehicle>
    <vehicle id="254" depart="276.86">
        <route edges="1fi fromLeft 3o 3fi fromBottom"/>
    </vehicle>
    <vehicle id="255" depart="277.95">
        <route edges="2fi fromRight 4o"/>
    </vehicle>
    <vehicle id="256" depart="279.04">
        <route edges="fromRight 3o 3fi fromBottom"/>
    </vehicle>
    <vehicle id="257" depart="280.13">
        <route edges="fromRight 4o 4fi fromTop"/>
    </vehicle>
    <vehicle id="258" depart="281.22">
        <route edges="3fi fromBottom 2o"/>
    </vehicle>
    <vehicle id="259" depart="282.31">
        <route edges="1fi fromLeft"/>
    </vehicle>
    <vehicle id="260" depart="283.40">
        <route edges="fromTop 4o"/>
    </vehicle>
    <vehicle id="261" depart="284.49">
        <route edges="fromLeft 4o 4fi fromTop"/>
    </vehicle>
    <vehicle id="262" depart="285.58">
        <route edges="fromLeft 4o 4fi fromTop"/>
    </vehicle>
    <vehicle id="263" depart="286.67">
        <route edges="fromTop 3o"/>
    </vehicle>
    <vehicle id="264" depart="287.76">
        <route edges="1fi fromLeft 3o"/>
    </vehicle>
    <vehicle id="265" depart="288.85">
        <route edges="2fi fromRight"/>
    </vehicle>
    <vehicle id="266" depart="289.94">
        <route edges="fromBottom 3o"/>
    </vehicle>
    <vehicle id="267" depart="291.03">
        <route edges="fromLeft 4o 4fi fromTop"/>
    </vehicle>
    <vehicle id="268" depart="292.12">
        <route edges="2fi fromRight toLeft 1fi fromLeft"/>
    </vehicle>
    <vehicle id="269" depart="293.21">
        <route edges="fromLeft 2o"/>
    </vehicle>
    <vehicle id="270" depart="294.30">
        <route edges="fromRight toLeft"/>
    </vehicle>
    <vehicle id="271" depart="295.39">
        <route edges="1fi fromLeft 2o"/>
    </vehicle>
    <vehicle id="272" depart="296.48">
        <route edges="3fi fromBottom 2o 2fi fromRight"/>
    </vehicle>
    <vehicle id="273" depart="297.57">
        <route edges="fromTop 3o 3fi fromBottom"/>
    </vehicle>
    <vehicle id="274" depart="298.66">
        <route edges="fromLeft 2o"/>
    </vehicle>
    <vehicle id="275" depart="299.75">
        <route edges="fromLeft 2o 2fi fromRight"/>
    </vehicle>
    <vehicle id="276" depart="300.84">
        <route edges="1fi fromLeft 4o 4fi fromTop"/>
    </vehicle>
    <vehicle id="277" depart="301.93">
        <route edges="fromRight toLeft 1fi fromLeft"/>
    </vehicle>
    <vehicle id="278" depart="303.02">
        <route edges="1fi fromLeft toLeft"/>
    </vehicle>
    <vehicle id="279" depart="304.11">
        <route edges="fromRight 4o"/>
    </vehicle>
    <vehicle id="280" depart="305.20">
        <route edges="4fi fromTop 4o"/>
    </vehicle>
    <vehicle id="281" depart="306.29">
        <route edges="fromBottom 4o"/>
    </vehicle>
    <vehicle id="282" depart="307.38">
        <route edges="fromRight 4o 4fi fromTop"/>
    </vehicle>
    <vehicle id="283" depart="308.47">